@<TRIPOS>MOLECULE
CLR
 74 77 0 0 0
SMALL
GASTEIGER

@<TRIPOS>ATOM
      1 C           1.3000   -1.0040   -4.5180 C.3     1  UNL1       -0.0413
      2 C           1.6510   -0.3360   -5.8500 C.3     1  UNL1       -0.0258
      3 C           0.3680    0.0110   -6.6060 C.3     1  UNL1        0.0590
      4 C          -0.4340    1.0410   -5.8060 C.3     1  UNL1       -0.0051
      5 C          -0.6710    0.4850   -4.4120 C.2     1  UNL1       -0.0648
      6 C          -1.8870    0.4760   -3.9510 C.2     1  UNL1       -0.0839
      7 C          -2.2430   -0.0540   -2.5930 C.3     1  UNL1       -0.0311
      8 C          -1.0260    0.0680   -1.6700 C.3     1  UNL1       -0.0307
      9 C           0.1640   -0.6550   -2.3130 C.3     1  UNL1       -0.0285
     10 C           0.5160   -0.0180   -3.6470 C.3     1  UNL1       -0.0078
     11 C           1.3950   -0.6740   -1.4100 C.3     1  UNL1       -0.0486
     12 C           1.0720   -1.2380   -0.0180 C.3     1  UNL1       -0.0468
     13 C          -0.0840   -0.4300    0.5720 C.3     1  UNL1       -0.0259
     14 C          -1.3200   -0.6190   -0.3490 C.3     1  UNL1       -0.0320
     15 C          -2.4370    0.0050    0.4940 C.3     1  UNL1       -0.0492
     16 C          -2.1200   -0.5070    1.9250 C.3     1  UNL1       -0.0492
     17 C          -0.6070   -0.8390    1.9460 C.3     1  UNL1       -0.0328
     18 C           0.2660    1.0580    0.5660 C.3     1  UNL1       -0.0590
     19 C           1.4260    1.1720   -3.3400 C.3     1  UNL1       -0.0556
     20 C           0.0950   -0.0360    3.0410 C.3     1  UNL1       -0.0405
     21 C           1.5970   -0.3260    3.0020 C.3     1  UNL1       -0.0621
     22 C          -0.4650   -0.4360    4.4070 C.3     1  UNL1       -0.0502
     23 C           0.2380    0.3660    5.5030 C.3     1  UNL1       -0.0526
     24 C          -0.3230   -0.0340    6.8690 C.3     1  UNL1       -0.0507
     25 C           0.3800    0.7680    7.9650 C.3     1  UNL1       -0.0467
     26 C          -0.1800    0.3680    9.3310 C.3     1  UNL1       -0.0627
     27 C           1.8820    0.4780    7.9260 C.3     1  UNL1       -0.0627
     28 O           0.7020    0.5560   -7.8850 O.3     1  UNL1       -0.3915
     29 H           0.6920   -1.8890   -4.7050 H       1  UNL1        0.0274
     30 H           2.2170   -1.2940   -4.0050 H       1  UNL1        0.0274
     31 H           2.2530   -1.0170   -6.4500 H       1  UNL1        0.0290
     32 H           2.2180    0.5750   -5.6600 H       1  UNL1        0.0290
     33 H          -0.2290   -0.8900   -6.7410 H       1  UNL1        0.0596
     34 H          -1.3900    1.2230   -6.2960 H       1  UNL1        0.0335
     35 H           0.1280    1.9720   -5.7390 H       1  UNL1        0.0335
     36 H          -2.6770    0.8680   -4.5740 H       1  UNL1        0.0572
     37 H          -2.5330   -1.1020   -2.6760 H       1  UNL1        0.0310
     38 H          -3.0710    0.5220   -2.1820 H       1  UNL1        0.0310
     39 H          -0.7840    1.1170   -1.5030 H       1  UNL1        0.0309
     40 H          -0.1440   -1.6840   -2.4950 H       1  UNL1        0.0312
     41 H           2.1650   -1.2910   -1.8730 H       1  UNL1        0.0268
     42 H           1.7720    0.3420   -1.3030 H       1  UNL1        0.0268
     43 H           0.7360   -2.2710   -0.1050 H       1  UNL1        0.0271
     44 H           1.9550   -1.1860    0.6170 H       1  UNL1        0.0271
     45 H          -1.5150   -1.6790   -0.5090 H       1  UNL1        0.0309
     46 H          -3.4130   -0.3480    0.1640 H       1  UNL1        0.0268
     47 H          -2.3860    1.0940    0.4540 H       1  UNL1        0.0268
     48 H          -2.7030   -1.4040    2.1380 H       1  UNL1        0.0268
     49 H          -2.3440    0.2660    2.6580 H       1  UNL1        0.0268
     50 H          -0.4570   -1.9070    2.1050 H       1  UNL1        0.0309
     51 H           0.5460    1.3610   -0.4420 H       1  UNL1        0.0235
     52 H          -0.5980    1.6360    0.8930 H       1  UNL1        0.0235
     53 H           1.1000    1.2380    1.2450 H       1  UNL1        0.0235
     54 H           1.6180    1.7280   -4.2580 H       1  UNL1        0.0238
     55 H           0.9380    1.8240   -2.6160 H       1  UNL1        0.0238
     56 H           2.3690    0.8120   -2.9280 H       1  UNL1        0.0238
     57 H          -0.0730    1.0280    2.8770 H       1  UNL1        0.0301
     58 H           1.7660   -1.3900    3.1660 H       1  UNL1        0.0233
     59 H           1.9970   -0.0400    2.0290 H       1  UNL1        0.0233
     60 H           2.0980    0.2450    3.7830 H       1  UNL1        0.0233
     61 H          -0.2960   -1.5010    4.5720 H       1  UNL1        0.0268
     62 H          -1.5350   -0.2300    4.4350 H       1  UNL1        0.0268
     63 H           0.0690    1.4300    5.3390 H       1  UNL1        0.0265
     64 H           1.3070    0.1590    5.4750 H       1  UNL1        0.0265
     65 H          -0.1540   -1.0980    7.0330 H       1  UNL1        0.0268
     66 H          -1.3930    0.1720    6.8970 H       1  UNL1        0.0268
     67 H           0.2110    1.8330    7.8010 H       1  UNL1        0.0295
     68 H           0.3200    0.9400   10.1120 H       1  UNL1        0.0232
     69 H          -1.2500    0.5750    9.3590 H       1  UNL1        0.0232
     70 H          -0.0120   -0.6960    9.4950 H       1  UNL1        0.0232
     71 H           2.0500   -0.5850    8.0900 H       1  UNL1        0.0232
     72 H           2.2810    0.7640    6.9530 H       1  UNL1        0.0232
     73 H           2.3830    1.0500    8.7060 H       1  UNL1        0.0232
     74 H          -0.1320    0.7600   -8.3280 H       1  UNL1        0.2098
@<TRIPOS>BOND
     1     1     2    1
     2     1    10    1
     3     1    29    1
     4     1    30    1
     5     2     3    1
     6     2    31    1
     7     2    32    1
     8     3     4    1
     9     3    28    1
    10     3    33    1
    11     4     5    1
    12     4    34    1
    13     4    35    1
    14     5     6    2
    15     5    10    1
    16     6     7    1
    17     6    36    1
    18     7     8    1
    19     7    37    1
    20     7    38    1
    21     8     9    1
    22     8    14    1
    23     8    39    1
    24     9    10    1
    25     9    11    1
    26     9    40    1
    27    10    19    1
    28    11    12    1
    29    11    41    1
    30    11    42    1
    31    12    13    1
    32    12    43    1
    33    12    44    1
    34    13    14    1
    35    13    17    1
    36    13    18    1
    37    14    15    1
    38    14    45    1
    39    15    16    1
    40    15    46    1
    41    15    47    1
    42    16    17    1
    43    16    48    1
    44    16    49    1
    45    17    20    1
    46    17    50    1
    47    18    51    1
    48    18    52    1
    49    18    53    1
    50    19    54    1
    51    19    55    1
    52    19    56    1
    53    20    21    1
    54    20    22    1
    55    20    57    1
    56    21    58    1
    57    21    59    1
    58    21    60    1
    59    22    23    1
    60    22    61    1
    61    22    62    1
    62    23    24    1
    63    23    63    1
    64    23    64    1
    65    24    25    1
    66    24    65    1
    67    24    66    1
    68    25    26    1
    69    25    27    1
    70    25    67    1
    71    26    68    1
    72    26    69    1
    73    26    70    1
    74    27    71    1
    75    27    72    1
    76    27    73    1
    77    28    74    1
