@<TRIPOS>MOLECULE
I33
 38 41 0 0 0
SMALL
GASTEIGER

@<TRIPOS>ATOM
      1 C           0.8040   -1.2920    0.2010 C.2     1  UNL1        0.2510
      2 C          -0.6290   -0.9750    0.1190 C.ar    1  UNL1        0.0750
      3 C          -1.6030   -1.8840    0.0120 C.ar    1  UNL1       -0.0347
      4 C          -2.9080   -1.3690   -0.0530 C.ar    1  UNL1       -0.0087
      5 C          -2.9380    0.0290    0.0080 C.ar    1  UNL1        0.0383
      6 C          -4.1630    0.7030   -0.0440 C.ar    1  UNL1        0.0552
      7 C          -5.3370   -0.0050   -0.1540 C.ar    1  UNL1       -0.0423
      8 C          -5.3120   -1.3930   -0.2140 C.ar    1  UNL1       -0.0598
      9 C          -4.1340   -2.0690   -0.1660 C.ar    1  UNL1       -0.0534
     10 C           3.1370   -0.6140    0.3940 C.3     1  UNL1        0.0390
     11 C           3.7120   -0.7600   -1.0180 C.3     1  UNL1        0.0176
     12 C           3.8740    0.5230    1.1130 C.3     1  UNL1       -0.0191
     13 C           5.3690    0.1850    1.1600 C.3     1  UNL1       -0.0356
     14 C           5.8830    0.0170   -0.2730 C.3     1  UNL1       -0.0007
     15 C           4.2200    1.6180   -1.0990 C.3     1  UNL1       -0.0007
     16 C           3.6720    1.8180    0.3170 C.3     1  UNL1       -0.0356
     17 N           1.7090   -0.2980    0.3120 N.am    1  UNL1       -0.3066
     18 N           4.7760    0.2340   -1.2150 N.3     1  UNL1       -0.3005
     19 O           1.1740   -2.4500    0.1740 O.2     1  UNL1       -0.2696
     20 S          -1.2960    0.6470    0.1540 S.2     1  UNL1       -0.0822
     21 CL         -4.2020    2.4370    0.0310 Cl      1  UNL1       -0.0824
     22 H          -1.4000   -2.9440   -0.0220 H       1  UNL1        0.0636
     23 H          -6.2800    0.5190   -0.1940 H       1  UNL1        0.0632
     24 H          -6.2390   -1.9410   -0.3000 H       1  UNL1        0.0618
     25 H          -4.1330   -3.1480   -0.2140 H       1  UNL1        0.0624
     26 H           3.2740   -1.5440    0.9450 H       1  UNL1        0.0514
     27 H           4.1230   -1.7620   -1.1410 H       1  UNL1        0.0445
     28 H           2.9220   -0.5980   -1.7510 H       1  UNL1        0.0445
     29 H           3.4850    0.6410    2.1250 H       1  UNL1        0.0320
     30 H           5.9110    0.9930    1.6500 H       1  UNL1        0.0281
     31 H           5.5170   -0.7420    1.7140 H       1  UNL1        0.0281
     32 H           6.6710    0.7450   -0.4650 H       1  UNL1        0.0427
     33 H           6.2790   -0.9900   -0.4020 H       1  UNL1        0.0427
     34 H           3.4180    1.7630   -1.8230 H       1  UNL1        0.0427
     35 H           5.0150    2.3390   -1.2870 H       1  UNL1        0.0427
     36 H           2.6070    2.0430    0.2680 H       1  UNL1        0.0281
     37 H           4.2000    2.6410    0.7990 H       1  UNL1        0.0281
     38 H           1.4140    0.6250    0.3370 H       1  UNL1        0.1494
@<TRIPOS>BOND
     1    11    18    1
     2    14    18    1
     3    15    18    1
     4    10    11    1
     5    13    14    1
     6    15    16    1
     7    10    17    1
     8    10    12    1
     9     1    19    2
    10    12    13    1
    11     1    17   am
    12     1     2    1
    13    12    16    1
    14     2    20   ar
    15     2     3   ar
    16     5    20   ar
    17     3     4   ar
    18     4     5   ar
    19     4     9   ar
    20     5     6   ar
    21     8     9   ar
    22     6    21    1
    23     6     7   ar
    24     7     8   ar
    25     3    22    1
    26     7    23    1
    27     8    24    1
    28     9    25    1
    29    10    26    1
    30    11    27    1
    31    11    28    1
    32    12    29    1
    33    13    30    1
    34    13    31    1
    35    14    32    1
    36    14    33    1
    37    15    34    1
    38    15    35    1
    39    16    36    1
    40    16    37    1
    41    17    38    1
