@<TRIPOS>MOLECULE
YLR
 47 51 0 0 0
SMALL
GASTEIGER

@<TRIPOS>ATOM
      1 C          -0.2520   -1.4510   -0.6790 C.3     1  UNL1        0.0091
      2 C           0.9960   -1.8450    0.1090 C.3     1  UNL1       -0.0048
      3 C           1.4420   -0.7990    1.1090 C.3     1  UNL1        0.0504
      4 C          -3.5000    0.1560    0.3180 C.ar    1  UNL1        0.1054
      5 C          -0.9220   -0.0480    1.2960 C.ar    1  UNL1        0.0315
      6 C          -1.2520   -0.6650    0.0990 C.ar    1  UNL1       -0.0175
      7 C          -2.5460   -0.5520   -0.3860 C.ar    1  UNL1       -0.0299
      8 C          -3.1720    0.7600    1.5180 C.ar    1  UNL1       -0.0336
      9 C           0.2540   -0.6950   -1.8810 C.2     1  UNL1       -0.0801
     10 C           2.0450   -1.9190   -1.0360 C.3     1  UNL1       -0.0291
     11 C           1.5220   -0.9560   -2.0800 C.2     1  UNL1       -0.0870
     12 C           2.2520    0.2430    0.3810 C.ar    1  UNL1       -0.0193
     13 C           1.6310    1.2870   -0.2320 C.ar    1  UNL1       -0.0562
     14 C           4.3310   -0.9140    0.9640 C.ar    1  UNL1       -0.0537
     15 C           3.6540    0.1450    0.3380 C.ar    1  UNL1       -0.0129
     16 C           2.3630    2.2600   -0.9100 C.ar    1  UNL1       -0.0609
     17 C           3.7200    2.1950   -0.9790 C.ar    1  UNL1       -0.0540
     18 C           5.6900   -0.9750    0.9020 C.ar    1  UNL1       -0.0612
     19 C           4.3980    1.1350   -0.3520 C.ar    1  UNL1       -0.0176
     20 C           5.7990    1.0350   -0.4000 C.ar    1  UNL1       -0.0540
     21 C           6.4210   -0.0060    0.2190 C.ar    1  UNL1       -0.0612
     22 C          -1.8860    0.6580    2.0080 C.ar    1  UNL1       -0.0387
     23 N          -6.0020   -0.9880    0.2830 N.3     1  UNL1       -0.2035
     24 N           0.3600   -0.1370    1.8020 N.pl3   1  UNL1       -0.3365
     25 O          -5.6980    1.4610    0.2670 O.2     1  UNL1       -0.1533
     26 O          -5.0440    0.0910   -1.7190 O.2     1  UNL1       -0.1533
     27 S          -5.1390    0.2920   -0.3150 S.O2    1  UNL1        0.0560
     28 H          -0.7280   -2.3670   -1.0270 H       1  UNL1        0.0395
     29 H           0.8670   -2.8150    0.5900 H       1  UNL1        0.0334
     30 H           2.0850   -1.2780    1.8470 H       1  UNL1        0.0551
     31 H          -2.8110   -1.0220   -1.3210 H       1  UNL1        0.0640
     32 H          -3.9200    1.3100    2.0690 H       1  UNL1        0.0638
     33 H          -0.3430   -0.0330   -2.4910 H       1  UNL1        0.0575
     34 H           3.0240   -1.5990   -0.6780 H       1  UNL1        0.0311
     35 H           2.0970   -2.9300   -1.4410 H       1  UNL1        0.0311
     36 H           2.1150   -0.5410   -2.8810 H       1  UNL1        0.0569
     37 H           0.5540    1.3620   -0.1940 H       1  UNL1        0.0621
     38 H           3.7770   -1.6750    1.4930 H       1  UNL1        0.0624
     39 H           1.8450    3.0780   -1.3890 H       1  UNL1        0.0618
     40 H           4.2740    2.9560   -1.5080 H       1  UNL1        0.0624
     41 H           6.2080   -1.7900    1.3850 H       1  UNL1        0.0618
     42 H           6.3780    1.7790   -0.9260 H       1  UNL1        0.0624
     43 H           7.4980   -0.0800    0.1810 H       1  UNL1        0.0618
     44 H          -1.6270    1.1290    2.9450 H       1  UNL1        0.0637
     45 H          -5.5730   -1.6320    0.8680 H       1  UNL1        0.1442
     46 H          -6.9380   -1.0940    0.0480 H       1  UNL1        0.1442
     47 H           0.5490    0.2830    2.6560 H       1  UNL1        0.1467
@<TRIPOS>BOND
     1     1     9    1
     2     1     6    1
     3     1    28    1
     4     2     1    1
     5     2    29    1
     6     3    24    1
     7     3     2    1
     8     3    30    1
     9     4    27    1
    10     5    22   ar
    11     5     6   ar
    12     6     7   ar
    13     7     4   ar
    14     7    31    1
    15     8     4   ar
    16     8    32    1
    17     9    33    1
    18    10     2    1
    19    10    11    1
    20    10    34    1
    21    10    35    1
    22    11     9    2
    23    11    36    1
    24    12     3    1
    25    13    12   ar
    26    13    37    1
    27    14    38    1
    28    15    12   ar
    29    15    14   ar
    30    16    13   ar
    31    16    39    1
    32    17    16   ar
    33    17    19   ar
    34    17    40    1
    35    18    14   ar
    36    18    41    1
    37    19    15   ar
    38    20    19   ar
    39    20    21   ar
    40    20    42    1
    41    21    18   ar
    42    21    43    1
    43    22     8   ar
    44    22    44    1
    45    23    45    1
    46    23    46    1
    47    24     5    1
    48    24    47    1
    49    27    26    2
    50    27    25    2
    51    27    23    1
