@<TRIPOS>MOLECULE
NCT
 26 27 0 0 0
SMALL
GASTEIGER

@<TRIPOS>ATOM
      1 N          -0.6730    1.1480   -2.4250 N.ar    1  UNL1       -0.2629
      2 C          -0.6330    0.8820   -1.1340 C.ar    1  UNL1        0.0322
      3 C          -0.0180   -0.2630   -0.6670 C.ar    1  UNL1       -0.0122
      4 C           0.5510   -1.1420   -1.5760 C.ar    1  UNL1       -0.0542
      5 C           0.4840   -0.8320   -2.9250 C.ar    1  UNL1       -0.0433
      6 C          -0.1420    0.3350   -3.3170 C.ar    1  UNL1        0.0276
      7 N           0.6150    0.5860    1.5560 N.3     1  UNL1       -0.2984
      8 C           0.0280   -0.5560    0.8100 C.3     1  UNL1        0.0368
      9 C          -1.4030   -0.6620    1.3920 C.3     1  UNL1       -0.0320
     10 C          -1.1930   -0.3360    2.8880 C.3     1  UNL1       -0.0385
     11 C           0.1280    0.4510    2.9460 C.3     1  UNL1       -0.0008
     12 C           2.0660    0.3650    1.5940 C.3     1  UNL1       -0.0122
     13 H          -1.0790    1.5720   -0.4330 H       1  UNL1        0.0833
     14 H           1.0350   -2.0470   -1.2400 H       1  UNL1        0.0622
     15 H           0.9170   -1.4930   -3.6610 H       1  UNL1        0.0633
     16 H          -0.1980    0.5850   -4.3660 H       1  UNL1        0.0829
     17 H           0.5900   -1.4700    1.0020 H       1  UNL1        0.0512
     18 H          -1.7950   -1.6710    1.2680 H       1  UNL1        0.0284
     19 H          -2.0630    0.0680    0.9260 H       1  UNL1        0.0284
     20 H          -1.1110   -1.2550    3.4680 H       1  UNL1        0.0278
     21 H          -2.0150    0.2750    3.2610 H       1  UNL1        0.0278
     22 H           0.8590   -0.0920    3.5440 H       1  UNL1        0.0427
     23 H          -0.0450    1.4380    3.3750 H       1  UNL1        0.0427
     24 H           2.2700   -0.6600    1.9020 H       1  UNL1        0.0391
     25 H           2.4860    0.5360    0.6020 H       1  UNL1        0.0391
     26 H           2.5210    1.0550    2.3050 H       1  UNL1        0.0391
@<TRIPOS>BOND
     1     1     2   ar
     2     1     6   ar
     3     2     3   ar
     4     2    13    1
     5     3     4   ar
     6     3     8    1
     7     4     5   ar
     8     4    14    1
     9     5     6   ar
    10     5    15    1
    11     6    16    1
    12     7     8    1
    13     7    11    1
    14     7    12    1
    15     8     9    1
    16     8    17    1
    17     9    10    1
    18     9    18    1
    19     9    19    1
    20    10    11    1
    21    10    20    1
    22    10    21    1
    23    11    22    1
    24    11    23    1
    25    12    24    1
    26    12    25    1
    27    12    26    1
