@<TRIPOS>MOLECULE
I34
 35 36 0 0 0
SMALL
GASTEIGER

@<TRIPOS>ATOM
      1 C           5.7490    0.3910   -0.4970 C.3     1  UNL1        0.0789
      2 C           3.4170    0.5550   -0.0610 C.ar    1  UNL1        0.1419
      3 C           3.3580   -0.8260   -0.1720 C.ar    1  UNL1        0.0251
      4 C           2.1490   -1.4820   -0.0140 C.ar    1  UNL1        0.1448
      5 C           3.3130   -3.5190   -0.4020 C.3     1  UNL1        0.0789
      6 C           0.9930   -0.7520    0.2560 C.ar    1  UNL1        0.0784
      7 C          -1.3890   -0.7610    0.1800 C.2     1  UNL1        0.3093
      8 C          -3.7620   -0.6810    0.1980 C.ar    1  UNL1        0.1691
      9 C          -3.9070    0.6350   -0.3160 C.ar    1  UNL1        0.0222
     10 C          -5.2460    0.8230   -0.3590 C.ar    1  UNL1        0.1361
     11 C          -5.9660    2.0600   -0.8290 C.3     1  UNL1       -0.0036
     12 C           1.0560    0.6280    0.3660 C.ar    1  UNL1       -0.0150
     13 C           2.2660    1.2800    0.2130 C.ar    1  UNL1        0.0845
     14 N          -0.2340   -1.4150    0.4160 N.am    1  UNL1       -0.2660
     15 N          -2.5680   -1.3580    0.4420 N.am    1  UNL1       -0.2512
     16 N          -4.9740   -1.1290    0.4010 N.ar    1  UNL1       -0.0627
     17 O           4.6050    1.1990   -0.2160 O.3     1  UNL1       -0.4935
     18 O           2.0890   -2.8360   -0.1230 O.3     1  UNL1       -0.4931
     19 O          -1.3660    0.3690   -0.2690 O.2     1  UNL1       -0.2521
     20 O          -5.8060   -0.3060    0.0970 O.2     1  UNL1       -0.3581
     21 CL          2.3440    3.0080    0.3580 Cl      1  UNL1       -0.0797
     22 H           5.9030   -0.3170    0.3180 H       1  UNL1        0.0660
     23 H           5.5890   -0.1560   -1.4260 H       1  UNL1        0.0660
     24 H           6.6280    1.0270   -0.5960 H       1  UNL1        0.0660
     25 H           4.2550   -1.3900   -0.3820 H       1  UNL1        0.0692
     26 H           4.0300   -3.3200    0.3960 H       1  UNL1        0.0660
     27 H           3.1250   -4.5910   -0.4630 H       1  UNL1        0.0660
     28 H           3.7180   -3.1660   -1.3500 H       1  UNL1        0.0660
     29 H          -3.1280    1.3260   -0.6040 H       1  UNL1        0.0687
     30 H          -6.1620    1.9830   -1.8980 H       1  UNL1        0.0309
     31 H          -6.9110    2.1560   -0.2930 H       1  UNL1        0.0309
     32 H          -5.3480    2.9370   -0.6350 H       1  UNL1        0.0309
     33 H           0.1610    1.1940    0.5750 H       1  UNL1        0.0653
     34 H          -0.2510   -2.3430    0.6960 H       1  UNL1        0.1565
     35 H          -2.5850   -2.2600    0.8000 H       1  UNL1        0.1579
@<TRIPOS>BOND
     1     5    18    1
     2     4    18    1
     3     3     4   ar
     4     4     6   ar
     5     2     3   ar
     6     6    14    1
     7     7    14   am
     8     6    12   ar
     9     7    15   am
    10     8    15    1
    11     8     9   ar
    12     9    10   ar
    13     2    17    1
    14     2    13   ar
    15     7    19    2
    16     1    17    1
    17     8    16   ar
    18    12    13   ar
    19    10    11    1
    20    10    20   ar
    21    13    21    1
    22    16    20   ar
    23     1    22    1
    24     1    23    1
    25     1    24    1
    26     3    25    1
    27     5    26    1
    28     5    27    1
    29     5    28    1
    30     9    29    1
    31    11    30    1
    32    11    31    1
    33    11    32    1
    34    12    33    1
    35    14    34    1
    36    15    35    1
