@<TRIPOS>MOLECULE
EPJ
 27 29 0 0 0
SMALL
GASTEIGER

@<TRIPOS>ATOM
      1 C           0.6400    0.4380    1.4330 C.3     1  UNL1        0.0024
      2 C          -0.4670    1.2970    2.0890 C.3     1  UNL1       -0.0292
      3 C          -1.1110    0.3300    3.1280 C.3     1  UNL1        0.0085
      4 C          -0.0550    0.2000    4.2670 C.3     1  UNL1       -0.0361
      5 C           1.0660   -0.6520    3.6250 C.3     1  UNL1       -0.0356
      6 C           0.5230   -0.9330    2.1630 C.3     1  UNL1        0.0148
      7 N          -0.9640   -0.9910    2.4210 N.3     1  UNL1       -0.3099
      8 C           0.3840    0.2780   -0.0420 C.ar    1  UNL1       -0.0246
      9 C          -0.9050    0.0770   -0.5120 C.ar    1  UNL1       -0.0540
     10 C          -1.0950   -0.0640   -1.8780 C.ar    1  UNL1       -0.0245
     11 C           0.0000   -0.0020   -2.7210 C.ar    1  UNL1        0.1292
     12 CL         -0.2220   -0.1790   -4.4330 Cl      1  UNL1       -0.0620
     13 N           1.2140    0.1840   -2.2360 N.ar    1  UNL1       -0.2433
     14 C           1.4290    0.3280   -0.9430 C.ar    1  UNL1        0.0327
     15 H           1.6210    0.8810    1.6050 H       1  UNL1        0.0365
     16 H          -0.0360    2.1650    2.5880 H       1  UNL1        0.0287
     17 H          -1.2030    1.6070    1.3470 H       1  UNL1        0.0287
     18 H          -2.1200    0.5880    3.4500 H       1  UNL1        0.0461
     19 H           0.3240    1.1810    4.5530 H       1  UNL1        0.0281
     20 H          -0.4810   -0.3120    5.1290 H       1  UNL1        0.0281
     21 H           2.0010   -0.0940    3.5920 H       1  UNL1        0.0281
     22 H           1.1950   -1.5880    4.1690 H       1  UNL1        0.0281
     23 H           0.9610   -1.7920    1.6550 H       1  UNL1        0.0466
     24 H          -1.4170   -0.9040    1.5240 H       1  UNL1        0.1225
     25 H          -1.7420    0.0340    0.1680 H       1  UNL1        0.0622
     26 H          -2.0850   -0.2210   -2.2790 H       1  UNL1        0.0648
     27 H           2.4360    0.4840   -0.5840 H       1  UNL1        0.0833
@<TRIPOS>BOND
     1     1     2    1
     2     1     6    1
     3     1     8    1
     4     1    15    1
     5     2     3    1
     6     2    16    1
     7     2    17    1
     8     3     4    1
     9     3     7    1
    10     3    18    1
    11     4     5    1
    12     4    19    1
    13     4    20    1
    14     5     6    1
    15     5    21    1
    16     5    22    1
    17     6     7    1
    18     6    23    1
    19     7    24    1
    20     8     9   ar
    21     8    14   ar
    22     9    10   ar
    23     9    25    1
    24    10    11   ar
    25    10    26    1
    26    11    12    1
    27    11    13   ar
    28    13    14   ar
    29    14    27    1
